include omnetpp.ini

[Config config1]
sim-time-limit = 100s
fingerprint = "99c7-3d66"
