include omnetpp.ini

[Config config1]
sim-time-limit = 100s
fingerprint = "eaed-6ca5"
