include omnetpp.ini

[Config config1]
sim-time-limit = 100s
fingerprint = "045b-3e0f"
