include omnetpp.ini

[Config config1]
sim-time-limit = 100s
fingerprint = "e437-4990"
