include omnetpp.ini

[Config config1]
sim-time-limit = 200s
fingerprint = "101a-c505"
