include largenet.ini

[Config config1]
sim-time-limit = 3s
fingerprint = "3173-4c33"
