include omnetpp.ini

[Config config1]
sim-time-limit = 100s
fingerprint = "c56c-c9ec"
